Version 4
SHEET 1 980 680
WIRE 288 -192 224 -192
WIRE 352 -192 288 -192
WIRE 288 -160 288 -192
WIRE 352 -160 288 -160
WIRE 768 -144 640 -144
WIRE 352 80 240 80
WIRE 704 112 656 112
FLAG -384 -64 0
FLAG -272 -64 0
FLAG 704 112 SpeakerOut
IOPIN 704 112 Out
FLAG 16 -192 V+
FLAG 352 -128 V+
FLAG 768 -112 V+
FLAG -16 64 V+
FLAG 352 112 V+
FLAG 16 -160 V-
FLAG 352 -96 V-
FLAG 768 -80 V-
FLAG -16 96 V-
FLAG 352 144 V-
FLAG -384 -144 V+
FLAG -272 -144 V-
SYMBOL voltage -384 -160 R0
WINDOW 123 0 0 Left 0
WINDOW 39 0 0 Left 0
SYMATTR InstName V1
SYMATTR Value 15
SYMBOL voltage -272 -160 R0
WINDOW 123 0 0 Left 0
WINDOW 39 0 0 Left 0
SYMATTR InstName V2
SYMATTR Value -15
SYMBOL LocalOscillator 112 -176 R0
SYMATTR InstName LocalOscillator
SYMBOL Mixer 496 -144 R0
SYMATTR InstName Mixer
SYMBOL OpticalTransmitter 800 -112 R0
SYMATTR InstName OpticalTransmitter
SYMBOL OpticalReceiver 112 80 R0
SYMATTR InstName OpticalReceiver
SYMBOL SpeakerDriver 496 112 R0
SYMATTR InstName SpeakerDriver
